** ------------------------------------- **
*HEADING
**
*Node
	1	,	-600	,	150
2	,	-595	,	150
3	,	-590	,	150
4	,	-585	,	150
5	,	-580	,	150
6	,	-575	,	150
7	,	-570	,	150
8	,	-565	,	150
9	,	-560	,	150
10	,	-555	,	150
11	,	-550	,	150
12	,	-545	,	150
13	,	-540	,	150
14	,	-535	,	150
15	,	-530	,	150
16	,	-525	,	150
17	,	-520	,	150
18	,	-515	,	150
19	,	-510	,	150
20	,	-505	,	150
** ... 6004 like lines cut
**
**
	21211	,	-600	,	-140
	21212	,	-590	,	-140
	21213	,	-580	,	-140
	21214	,	-570	,	-140
	21215	,	-560	,	-140
	21216	,	-550	,	-140
	21217	,	-540	,	-140
	21218	,	-530	,	-140
	21219	,	-520	,	-140
	21220	,	-510	,	-140
	21221	,	-500	,	-140
	21222	,	-490	,	-140
	21223	,	-480	,	-140
	21224	,	-470	,	-140
	21225	,	-460	,	-140
	21226	,	-450	,	-140
	21227	,	-440	,	-140
	21228	,	-430	,	-140
	21229	,	-420	,	-140
	21230	,	-410	,	-140
** ... 222 like lines cut
**
** ------------------------------------- **
**
** Defining user element U1
*User element,nodes=8,type=U1,properties=11,coordinates=2,VARIABLES=1080,Unsymm
	1, 2, 11
*Element, type=U1,elset=NC
1	,	363	,	365	,	3	,	1	,	364	,	243	,	2	,	242
2	,	365	,	367	,	5	,	3	,	366	,	244	,	4	,	243
3	,	367	,	369	,	7	,	5	,	368	,	245	,	6	,	244
4	,	369	,	371	,	9	,	7	,	370	,	246	,	8	,	245
5	,	371	,	373	,	11	,	9	,	372	,	247	,	10	,	246
6	,	373	,	375	,	13	,	11	,	374	,	248	,	12	,	247
7	,	375	,	377	,	15	,	13	,	376	,	249	,	14	,	248
8	,	377	,	379	,	17	,	15	,	378	,	250	,	16	,	249
9	,	379	,	381	,	19	,	17	,	380	,	251	,	18	,	250
10	,	381	,	383	,	21	,	19	,	382	,	252	,	20	,	251
11	,	383	,	385	,	23	,	21	,	384	,	253	,	22	,	252
12	,	385	,	387	,	25	,	23	,	386	,	254	,	24	,	253
13	,	387	,	389	,	27	,	25	,	388	,	255	,	26	,	254
14	,	389	,	391	,	29	,	27	,	390	,	256	,	28	,	255
15	,	391	,	393	,	31	,	29	,	392	,	257	,	30	,	256
16	,	393	,	395	,	33	,	31	,	394	,	258	,	32	,	257
17	,	395	,	397	,	35	,	33	,	396	,	259	,	34	,	258
18	,	397	,	399	,	37	,	35	,	398	,	260	,	36	,	259
19	,	399	,	401	,	39	,	37	,	400	,	261	,	38	,	260
20	,	401	,	403	,	41	,	39	,	402	,	262	,	40	,	261
** ... 1060 like lines cut
**
*Uel property, elset=NC
 30000, 0.2, 300, 0.0001, 300
**
**
**
*Element, type=U1,elset=UHPC
1081	,	3621	,	3623	,	13261	,	13259	,	3622	,	3501	,	13260	,	3500
1082	,	3623	,	3625	,	13263	,	13261	,	3624	,	3502	,	13262	,	3501
1083	,	3625	,	3627	,	13265	,	13263	,	3626	,	3503	,	13264	,	3502
1084	,	3627	,	3629	,	13267	,	13265	,	3628	,	3504	,	13266	,	3503
1085	,	3629	,	3631	,	13269	,	13267	,	3630	,	3505	,	13268	,	3504
1086	,	3631	,	3633	,	13271	,	13269	,	3632	,	3506	,	13270	,	3505
1087	,	3633	,	3635	,	13273	,	13271	,	3634	,	3507	,	13272	,	3506
1088	,	3635	,	3637	,	13275	,	13273	,	3636	,	3508	,	13274	,	3507
1089	,	3637	,	3639	,	13277	,	13275	,	3638	,	3509	,	13276	,	3508
1090	,	3639	,	3641	,	13279	,	13277	,	3640	,	3510	,	13278	,	3509
1091	,	3641	,	3643	,	13281	,	13279	,	3642	,	3511	,	13280	,	3510
1092	,	3643	,	3645	,	13283	,	13281	,	3644	,	3512	,	13282	,	3511
1093	,	3645	,	3647	,	13285	,	13283	,	3646	,	3513	,	13284	,	3512
1094	,	3647	,	3649	,	13287	,	13285	,	3648	,	3514	,	13286	,	3513
1095	,	3649	,	3651	,	13289	,	13287	,	3650	,	3515	,	13288	,	3514
1096	,	3651	,	3653	,	13291	,	13289	,	3652	,	3516	,	13290	,	3515
1097	,	3653	,	3655	,	13293	,	13291	,	3654	,	3517	,	13292	,	3516
1098	,	3655	,	3657	,	13295	,	13293	,	3656	,	3518	,	13294	,	3517
1099	,	3657	,	3659	,	13297	,	13295	,	3658	,	3519	,	13296	,	3518
1100	,	3659	,	3661	,	13299	,	13297	,	3660	,	3520	,	13298	,	3519
** ... 700 like lines cut
**
*Uel property, elset=UHPC
	75000, 0.2, 300, 0.00020, 100
**
**
*Element, type=CPS8,elset=rigid
	1801	,	5682	,	5684	,	5449	,	5447	,	5683	,	5673	,	5448	,	5672
	1802	,	5684	,	5686	,	5451	,	5449	,	5685	,	5674	,	5450	,	5673
	1803	,	5686	,	5688	,	5453	,	5451	,	5687	,	5675	,	5452	,	5674
	1804	,	5688	,	5690	,	5455	,	5453	,	5689	,	5676	,	5454	,	5675
	1805	,	5691	,	5693	,	5649	,	5647	,	5692	,	5678	,	5648	,	5677
	1806	,	5693	,	5695	,	5651	,	5649	,	5694	,	5679	,	5650	,	5678
	1807	,	5695	,	5697	,	5653	,	5651	,	5696	,	5680	,	5652	,	5679
	1808	,	5697	,	5699	,	5655	,	5653	,	5698	,	5681	,	5654	,	5680
	1809	,	5710	,	5712	,	5684	,	5682	,	5711	,	5701	,	5683	,	5700
	1810	,	5712	,	5714	,	5686	,	5684	,	5713	,	5702	,	5685	,	5701
	1811	,	5714	,	5716	,	5688	,	5686	,	5715	,	5703	,	5687	,	5702
	1812	,	5716	,	5718	,	5690	,	5688	,	5717	,	5704	,	5689	,	5703
	1813	,	5719	,	5721	,	5693	,	5691	,	5720	,	5706	,	5692	,	5705
	1814	,	5721	,	5723	,	5695	,	5693	,	5722	,	5707	,	5694	,	5706
	1815	,	5723	,	5725	,	5697	,	5695	,	5724	,	5708	,	5696	,	5707
	1816	,	5725	,	5727	,	5699	,	5697	,	5726	,	5709	,	5698	,	5708
	1817	,	77	,	79	,	5740	,	5738	,	78	,	5729	,	5739	,	5728
	1818	,	79	,	81	,	5742	,	5740	,	80	,	5730	,	5741	,	5729
	1819	,	81	,	83	,	5744	,	5742	,	82	,	5731	,	5743	,	5730
	1820	,	83	,	85	,	5746	,	5744	,	84	,	5732	,	5745	,	5731
** ... 12 like lines cut
**
**
**
**
*Element, TYPE=CPS8, elset=MIRROR
10001	,	363	,	365	,	3	,	1	,	364	,	243	,	2	,	242
10002	,	365	,	367	,	5	,	3	,	366	,	244	,	4	,	243
10003	,	367	,	369	,	7	,	5	,	368	,	245	,	6	,	244
10004	,	369	,	371	,	9	,	7	,	370	,	246	,	8	,	245
10005	,	371	,	373	,	11	,	9	,	372	,	247	,	10	,	246
10006	,	373	,	375	,	13	,	11	,	374	,	248	,	12	,	247
10007	,	375	,	377	,	15	,	13	,	376	,	249	,	14	,	248
10008	,	377	,	379	,	17	,	15	,	378	,	250	,	16	,	249
10009	,	379	,	381	,	19	,	17	,	380	,	251	,	18	,	250
10010	,	381	,	383	,	21	,	19	,	382	,	252	,	20	,	251
10011	,	383	,	385	,	23	,	21	,	384	,	253	,	22	,	252
10012	,	385	,	387	,	25	,	23	,	386	,	254	,	24	,	253
10013	,	387	,	389	,	27	,	25	,	388	,	255	,	26	,	254
10014	,	389	,	391	,	29	,	27	,	390	,	256	,	28	,	255
10015	,	391	,	393	,	31	,	29	,	392	,	257	,	30	,	256
10016	,	393	,	395	,	33	,	31	,	394	,	258	,	32	,	257
10017	,	395	,	397	,	35	,	33	,	396	,	259	,	34	,	258
10018	,	397	,	399	,	37	,	35	,	398	,	260	,	36	,	259
10019	,	399	,	401	,	39	,	37	,	400	,	261	,	38	,	260
10020	,	401	,	403	,	41	,	39	,	402	,	262	,	40	,	261
** ... 1812 like lines cut
	**
*Element, TYPE=CPS4, elset=MIRROR_COH
	11833	,	31211	,	31212	,	21212	,	21211
	11834	,	31212	,	31213	,	21213	,	21212
	11835	,	31213	,	31214	,	21214	,	21213
	11836	,	31214	,	31215	,	21215	,	21214
	11837	,	31215	,	31216	,	21216	,	21215
	11838	,	31216	,	31217	,	21217	,	21216
	11839	,	31217	,	31218	,	21218	,	21217
	11840	,	31218	,	31219	,	21219	,	21218
	11841	,	31219	,	31220	,	21220	,	21219
	11842	,	31220	,	31221	,	21221	,	21220
	11843	,	31221	,	31222	,	21222	,	21221
	11844	,	31222	,	31223	,	21223	,	21222
	11845	,	31223	,	31224	,	21224	,	21223
	11846	,	31224	,	31225	,	21225	,	21224
	11847	,	31225	,	31226	,	21226	,	21225
	11848	,	31226	,	31227	,	21227	,	21226
	11849	,	31227	,	31228	,	21228	,	21227
	11850	,	31228	,	31229	,	21229	,	21228
	11851	,	31229	,	31230	,	21230	,	21229
	11852	,	31230	,	31231	,	21231	,	21230
** ... 100 like lines cut
*Solid Section, elset=MIRROR, material=umatelemX
	1.0
*Solid Section, elset=MIRROR_COH, material=umatelemX
	1.0	
*Material, name=umatelemX
*Depvar
	120,
*User Material, constants=2
	1.0e-11, 0.2
** ------------------------------------- **
*user element, type=U6, nodes=6, coordinates=2, iproperties=2, properties=7, variables=60
	1, 2
*element, type=U6,elset=INTERFACE
1833	,	13259	,	13261	,	13260	,	3259	,	3261	,	3260
1834	,	13261	,	13263	,	13262	,	3261	,	3263	,	3262
1835	,	13263	,	13265	,	13264	,	3263	,	3265	,	3264
1836	,	13265	,	13267	,	13266	,	3265	,	3267	,	3266
1837	,	13267	,	13269	,	13268	,	3267	,	3269	,	3268
1838	,	13269	,	13271	,	13270	,	3269	,	3271	,	3270
1839	,	13271	,	13273	,	13272	,	3271	,	3273	,	3272
1840	,	13273	,	13275	,	13274	,	3273	,	3275	,	3274
1841	,	13275	,	13277	,	13276	,	3275	,	3277	,	3276
1842	,	13277	,	13279	,	13278	,	3277	,	3279	,	3278
1843	,	13279	,	13281	,	13280	,	3279	,	3281	,	3280
1844	,	13281	,	13283	,	13282	,	3281	,	3283	,	3282
1845	,	13283	,	13285	,	13284	,	3283	,	3285	,	3284
1846	,	13285	,	13287	,	13286	,	3285	,	3287	,	3286
1847	,	13287	,	13289	,	13288	,	3287	,	3289	,	3288
1848	,	13289	,	13291	,	13290	,	3289	,	3291	,	3290
1849	,	13291	,	13293	,	13292	,	3291	,	3293	,	3292
1850	,	13293	,	13295	,	13294	,	3293	,	3295	,	3294
1851	,	13295	,	13297	,	13296	,	3295	,	3297	,	3296
1852	,	13297	,	13299	,	13298	,	3297	,	3299	,	3298
** ... 100 like lines cut
*UEL PROPERTY, ELSET=INTERFACE
	600., 0.0002, 0.00000
** ------------------------------------- **
*Nset, nset=loading
  5770, 5779
*Nset, nset=support
  5714, 5723
*Nset, nset=middle
  5551
*Solid Section, elset=rigid, material=rigid
** ------------------------------------- **
*Material, name=rigid
*Elastic
  90000., 0.0
** ----------------------------------------------------------------
** 
** STEP: Step-1
** 
*Boundary
   support, 2, 2
   middle, 1, 1
*step, inc=100000, NLGEOM
*static
   0.1, 250, 0.00001, 2
*Boundary
   loading, 2, 2, -2.5
** 
** CONTROLS
** 
*Controls, reset
*Controls, parameters=line search
, , , , 
*Controls, parameters=field, field=displacement
100, 1, , , , , , 
*Controls, parameters=field, field=hydrostatic fluid pressure
100, 1, , , , , , 
*Controls, parameters=field, field=rotation
100, 1, , , , , , 
*Controls, parameters=field, field=electrical potential
100, 1, , , , , , 
** 
** OUTPUT REQUESTS
** 
*Restart, write, frequency=0
** 
** FIELD OUTPUT: F-Output-1
** 
** 
*Output, field
*Node Output
 U, RF
*Element Output, directions=YES
 S, SDV, 
** 
** HISTORY OUTPUT: H-Output-1
** 
*Output, history, variable=PRESELECT
**
*end step